# SC-AFIR/wB97XD/def2SVPP

0 1
C    -0.869684428805      3.092274409930      0.323020600493  1
C    -2.199288463322      3.119876776586      0.116876830502  1
C    -2.790078236865      1.871189386910      0.614657490883  1
C    -1.816665439333      1.091756583567      1.120210737801  1
C    -0.498352428310      1.797133083192      0.986762370074  1
H    -0.157216530501      3.867904756454      0.069193639611  1
H    -2.761641844124      3.927741428086     -0.338212839050  1
H    -3.847519138456      1.633491108106      0.574739068925  1
H    -1.934449397365      0.109343573922      1.561149002664  1
H    -0.019609361778      1.959381536671      1.962607406091  1
H     0.211587738607      1.214854351517      0.382858776373  1
O    -1.761011394623     -1.857382529812     -1.892097285378  2
C    -1.956287303963     -0.662553868103     -1.832840800162  2
C    -0.920525680691      0.366456965663     -2.105717181436  2
C     0.297663902756      0.020967756366     -2.524860880837  2
H    -2.955098042182     -0.266326273885     -1.563752324208  2
H    -1.198087243322      1.405543745085     -1.943950223359  2
H     0.547819340450     -1.026222881545     -2.672968693721  2
H     1.063980832078      0.761152474489     -2.733487338230  2
Options
GauMem=200
GauProc=2
DownDC=12
NRUN=1
NOFC
EQOnly
KeepLUPPath
SkipLUPInitialstage
LUPSize=10 10
Rtemperature=3000.0
Add Interaction
target=1-4,12-15
Gamma=200
END
StopPath=10000
SCGO_nLowest = 24
SCGO_pLatest = 80
