%infile=Ala_f0SC
# RePATH/wB97XD/def2SVPP

0 1
C     3.567583371181      6.125029689938      6.399563167432
C     3.031864900188      6.694927592911      7.718134802230
C     3.754362221728      6.037469991962      8.891738125286
N     3.138639383005      8.144459628223      7.722251715870
O     4.527568128377      6.599452336881      9.635704491599
O     3.447169574273      4.736853836873      9.009277442132
H     3.444566707552      5.040167227709      6.358116577856
H     4.632115576196      6.358541565498      6.284861333504
H     3.024485570020      6.577217196692      5.566143369278
H     1.973138197306      6.426212708109      7.807370072212
H     2.763683224946      8.506404688763      8.595916853865
H     4.124959391789      8.397599290654      7.730812961846
H     3.955213557454      4.380375047106      9.757083852413
Options
GauProc=2
GauMem=2000
DownDC=15
KeepLUPPath
