# MC-AFIR/UwB97XD/GenECP SCRF=(CPCM,Solvent=THF)

-1 1
Pd    0.390684993166      6.794376320347     10.169144679288   1
I     2.040924302288      7.714983171224      8.220339595260   1
P    -1.342842742089      6.160794081650      8.755355558802   1
C    -2.004192083404      7.520879535683      7.722752705315   1
H    -1.179842436888      7.957739394794      7.135621848251   1
H    -2.789335635807      7.150592998756      7.040953680484   1
H    -2.425421071292      8.305889876197      8.372744102347   1
C    -0.852567696850      4.871565045047      7.560682607250   1
H    -0.022056558661      5.250790131749      6.943175569669   1
H    -0.499447861304      4.002601833510      8.141832222367   1
H    -1.703700882834      4.591265298474      6.915748217702   1
C    -2.835347471494      5.448683319243      9.537285726421   1
H    -3.602735861212      5.219103294905      8.777585225844   1
H    -2.535418685857      4.516546124832     10.044912955635   1
H    -3.250849852818      6.154517343961     10.274783606676   1
C     1.805720602596      6.978298122943     11.871532514424   1
C     0.498189421407      7.222583134924     12.298780470643   1
C    -0.518335487255      6.267272886135     12.015874502984   1
H     2.544391643987      7.785905516507     11.908707974028   1
H     2.200742350837      5.954310869031     11.779501875072   1
H     0.212381319674      8.242534303165     12.585291331017   1
H    -1.562190582931      6.544042991742     12.203521483636   1
H    -0.291641842327      5.196966495010     12.106253725359   1
C     0.981622201535      3.111427389606     11.493041461875   2
H     1.353753452052      3.176972018336     12.511823840027   2
C    -0.381520185977      2.767772245859     11.241971252935   2
O    -1.001577388220      2.696974512170     10.191587919250   2
O    -1.007405861008      2.534009189028     12.434298660993   2
C    -2.389356203387      2.225950640338     12.388103326871   2
H    -2.947138090571      3.075841798334     11.956004491078   2
H    -2.558840207586      1.356027500184     11.730304282760   2
C    -2.852230855596      1.941908416259     13.802216825989   2
H    -2.688460198050      2.818860412438     14.451106257614   2
H    -2.302570115085      1.086053287182     14.229000007209   2
H    -3.928543019546      1.701852161886     13.806469042096   2
N     1.861913767260      3.527979389245     10.535025924571   2
O     1.583638882984      3.485051783818      9.327932854608   2
O     2.974335973884      3.957707012483     10.913312240975   2
Options
GauProc=5
GauMem=2000
NOFC
RandDC=12
DownDC=15
NSample=50
Opt=Loose
KeepIntFiles
Add Interaction
Fragm.1=24
Fragm.2=16-18
1 2
gamma=200
END
GauInpB
H C N O P 0
def2SVPP
****
Pd I 0
def2SVPP
****

Pd I 0
def2SVPP
END
